*version 8.0 192649121
u 2860
U? 30
D? 4
R? 25
P? 5
Q? 6
J? 2
C? 2
DSTM? 16
? 72
@libraries
@analysis
.TRAN 1 0 0 0
+0 1us
+1 200us
.OP 0 
.STMLIB nv_ram.stl
@targets
t 1;309: a 0 s 0:13 0 0 0 hln 100 GATE=A
t 1;947: a 0 s 0:13 0 0 0 hln 100 PKGREF=R1
t 1;303: a 0 s 0:13 0 0 0 hln 100 PKGREF=Q3
t 1;303: a 0 s 0:13 0 0 0 hln 100 PKGTYPE=TO-220AB
t 1;305: a 0 s 0:13 0 0 0 hln 100 PKGREF=D1
t 1;305: a 0 s 0:13 0 0 0 hln 100 PKGTYPE=DO-35
t 1;965: a 0 s 0:13 0 0 0 hln 100 PKGREF=R2
t 1;964: a 0 s 0:13 0 0 0 hln 100 PKGREF=R3
t 1;994: a 0 s 0:13 0 0 0 hln 100 PKGREF=R4
t 1;966: a 0 s 0:13 0 0 0 hln 100 PKGREF=R5
t 1;256: a 0 s 0:13 0 0 0 hln 100 PKGREF=R6
t 1;1013: a 0 s 0:13 0 0 0 hln 100 PKGREF=P1
t 1;1013: a 0 s 0:13 0 0 0 hln 100 PKGTYPE=DSHELL25-M
t 1;996: a 0 s 0:13 0 0 0 hln 100 PKGREF=Q2
t 1;996: a 0 s 0:13 0 0 0 hln 100 PKGTYPE=TO-220AB
t 1;997: a 0 s 0:13 0 0 0 hln 100 PKGREF=Q1
t 1;997: a 0 s 0:13 0 0 0 hln 100 PKGTYPE=TO-220AB
t 1;949: a 0 s 0:13 0 0 0 hln 100 PKGREF=R7
t 1;1638: a 0 s 0:13 0 0 0 hln 100 PKGREF=R8
t 1;1502: a 0 s 0:13 0 0 0 hln 100 PKGREF=J1
t 1;1502: a 0 s 0:13 0 0 0 hln 100 PKGTYPE=DSHELL25-F
t 1;1666: a 0 s 0:13 0 0 0 hln 100 PKGREF=R9
t 1;1674: a 0 s 0:13 0 0 0 hln 100 PKGTYPE=RC05
t 1;1675: a 0 s 0:13 0 0 0 hln 100 PKGTYPE=RC05
t 1;1676: a 0 s 0:13 0 0 0 hln 100 PKGTYPE=RC05
t 1;1677: a 0 s 0:13 0 0 0 hln 100 PKGTYPE=RC05
t 1;1678: a 0 s 0:13 0 0 0 hln 100 PKGREF=R8
t 1;1678: a 0 s 0:13 0 0 0 hln 100 PKGTYPE=RC05
t 1;1679: a 0 s 0:13 0 0 0 hln 100 PKGREF=R9
t 1;1679: a 0 s 0:13 0 0 0 hln 100 PKGTYPE=RC05
t 1;1680: a 0 s 0:13 0 0 0 hln 100 PKGTYPE=RC05
t 1;1681: a 0 s 0:13 0 0 0 hln 100 PKGTYPE=RC05
t 1;1682: a 0 s 0:13 0 0 0 hln 100 PKGTYPE=RC05
t 1;1673: a 0 s 0:13 0 0 0 hln 100 PKGREF=C1
t 1;1673: a 0 s 0:13 0 0 0 hln 100 PKGTYPE=CK05
@attributes
@translators
a 0 u 13 0 0 0 hln 100 TANGO=PCB
a 0 u 13 0 0 0 hln 100 SCICARDS=PCB
a 0 u 13 0 0 0 hln 100 PROTEL=PCB
a 0 u 13 0 0 0 hln 100 PCBOARDS=PCB
a 0 u 13 0 0 0 hln 100 PCAD=PCB
a 0 u 13 0 0 0 hln 100 PADS=PCB
a 0 u 13 0 0 0 hln 100 ORCAD=PCB
a 0 u 13 0 0 0 hln 100 EDIF=PCB
a 0 u 13 0 0 0 hln 100 CADSTAR=PCB
a 0 u 13 0 0 0 hln 100 PSPICE=PSPICE
a 0 u 13 0 0 0 hln 100 XILINX=XILINX
@setup
unconnectedPins 0
connectViaLabel 0
connectViaLocalLabels 0
NoStim4ExtIFPortsWarnings 1
AutoGenStim4ExtIFPorts 1
@index
pageloc 1 0 40280 
@status
c 100:04:24:20:54:36;959187276
n 0 100:05:11:18:45:48;960734748 e 
p 0 100:03:30:17:48:42;957102522 e 
i PCBOARDS 100:04:20:15:04:13;958820653 e 2453 
b PCBOARDS 100:04:21:08:35:26;958883726 100:04:20:15:20:27;958821627 e 0 
*page 1 0 297 210 mb
@ports
port 1006 GND_ANALOG 1080 730 h
port 1623 GND_ANALOG 1150 730 h
port 1032 GND_ANALOG 390 680 h
port 822 +5V 530 740 d
port 2072 GND_ANALOG 510 710 d
port 2071 GND_ANALOG 510 640 d
port 1667 +5V 1210 770 u
port 1639 +5V 1180 770 u
port 838 GND_ANALOG 1060 430 d
port 977 +5V 820 620 h
port 2807 +5V 1090 620 h
port 948 GND_ANALOG 710 860 h
port 961 +5V 840 820 h
@parts
part 310 74LS00 680 660 h
a 0 x 0:13 0 0 0 hln 100 PKGREF=U6
a 0 x 0:13 0 0 0 hln 100 GATE=B
a 0 xp 9 0 11 -4 hln 100 REFDES=U6B
a 0 x 0:13 0 0 0 hln 100 PKGTYPE=DIP14
a 0 sp 11 0 15 35 hln 100 PART=74LS00
part 311 74LS00 720 730 h
a 0 sp 11 0 15 35 hln 100 PART=74LS00
a 0 x 0:13 0 0 0 hln 100 PKGREF=U6
a 0 x 0:13 0 0 0 hln 100 GATE=C
a 0 xp 9 0 11 -4 hln 100 REFDES=U6C
a 0 x 0:13 0 0 0 hln 100 PKGTYPE=DIP14
part 1676 R 940 700 h
a 0 sp 0 0 0 10 hlb 100 PART=R
a 0 s 0:13 0 0 0 hln 100 GATE=
a 0 x 0:13 0 0 0 hln 100 PKGREF=R6
a 0 xp 9 0 15 0 hln 100 REFDES=R6
a 0 s 0:13 0 0 0 hln 100 PKGTYPE=RC05
part 312 74LS00 520 790 h
a 0 sp 11 0 40 50 hln 100 PART=74LS00
a 0 x 0:13 0 0 0 hln 100 PKGREF=U6
a 0 x 0:13 0 0 0 hln 100 GATE=D
a 0 x 0:13 0 0 0 hln 100 PKGTYPE=DIP14
a 0 xp 9 0 35 -4 hln 100 REFDES=U6D
part 2054 DigStim 320 440 h
a 0 a 0:13 0 0 0 hln 100 PKGREF=DSTM13
a 1 ap 9 0 13 -1 hcn 100 REFDES=DSTM13
a 0 x 13 13 4 19 hln 70 STIMULUS=STROBE
part 2051 DigStim 320 560 h
a 0 a 0:13 0 0 0 hln 100 PKGREF=DSTM10
a 1 ap 9 0 13 -1 hcn 100 REFDES=DSTM10
a 0 x 13 13 4 19 hln 70 STIMULUS=AUTO_FD
part 2052 DigStim 320 590 h
a 0 a 0:13 0 0 0 hln 100 PKGREF=DSTM11
a 1 ap 9 0 13 -1 hcn 100 REFDES=DSTM11
a 0 x 13 13 4 19 hln 70 STIMULUS=INIT
part 2053 DigStim 320 620 h
a 0 a 0:13 0 0 0 hln 100 PKGREF=DSTM12
a 1 ap 9 0 13 -1 hcn 100 REFDES=DSTM12
a 0 x 13 13 4 19 hln 70 STIMULUS=SLCT_IN
part 1893 R 530 740 u
a 0 s 0:13 0 0 0 hln 100 PKGTYPE=RC05
a 0 sp 0 0 0 10 hlb 100 PART=R
a 0 s 0:13 0 0 0 hln 100 GATE=
a 0 x 0:13 0 0 0 hln 100 PKGREF=R1
a 0 xp 9 0 31 26 hln 100 REFDES=R1
part 308 74ALS138 510 640 h
a 0 sp 11 0 14 -4 hln 100 PART=74ALS138
a 0 s 0:13 0 0 0 hln 100 GATE=
a 0 x 0:13 0 0 0 hln 100 PKGREF=U1
a 0 x 0:13 0 0 0 hln 100 PKGTYPE=DIP16
a 0 xp 9 0 -5 -4 hln 100 REFDES=U1
part 309 74LS00 610 610 h
a 0 x 0:13 0 0 0 hln 100 PKGTYPE=DIP14
a 0 x 0:13 0 0 0 hln 100 PKGREF=U6
a 0 sp 11 0 15 35 hln 100 PART=74LS00
a 0 xp 9 0 -23 6 hln 100 REFDES=U6A
a 0 s 0:13 0 0 0 hln 100 GATE=A
part 1909 DigStim 320 740 h
a 0 a 0:13 0 0 0 hln 100 PKGREF=DSTM9
a 1 ap 9 0 13 -1 hcn 100 REFDES=DSTM9
a 0 x 13 13 4 19 hln 70 STIMULUS=Reset
part 1678 R 1210 730 d
a 0 sp 0 0 0 10 hlb 100 PART=R
a 0 s 0:13 0 0 0 hln 100 GATE=
a 0 ap 9 0 15 0 hln 100 REFDES=R8
a 0 a 0:13 0 0 0 hln 100 PKGREF=R20
a 0 s 0:13 0 0 0 hln 100 PKGTYPE=RC05
part 997 TIP30 1130 700 U
a 0 sp 11 0 15 40 hln 100 PART=TIP30
a 0 s 0:13 0 0 0 hln 100 GATE=
a 0 ap 9 0 5 5 hln 100 REFDES=Q1
a 0 a 0:13 0 0 0 hln 100 PKGREF=Q5
a 0 s 0:13 0 0 0 hln 100 PKGTYPE=TO-220AB
part 1679 R 1180 730 d
a 0 sp 0 0 0 10 hlb 100 PART=R
a 0 s 0:13 0 0 0 hln 100 GATE=
a 0 ap 9 0 15 0 hln 100 REFDES=R9
a 0 a 0:13 0 0 0 hln 100 PKGREF=R21
a 0 s 0:13 0 0 0 hln 100 PKGTYPE=RC05
part 2 74AS573 550 430 h
a 0 s 0:13 0 0 0 hln 100 GATE=
a 0 x 0:13 0 0 0 hln 100 PKGTYPE=DIP20
a 0 sp 11 0 10 120 hln 100 PART=74AS573
a 0 x 0:13 0 0 0 hln 100 PKGREF=U2
a 1 xp 9 0 11 -2 hln 100 REFDES=U2
part 1675 R 820 660 h
a 0 sp 0 0 0 10 hlb 100 PART=R
a 0 s 0:13 0 0 0 hln 100 GATE=
a 0 x 0:13 0 0 0 hln 100 PKGREF=R5
a 0 xp 9 0 15 0 hln 100 REFDES=R5
a 0 s 0:13 0 0 0 hln 100 PKGTYPE=RC05
part 1677 R 1020 660 h
a 0 sp 0 0 0 10 hlb 100 PART=R
a 0 s 0:13 0 0 0 hln 100 GATE=
a 0 x 0:13 0 0 0 hln 100 PKGREF=R7
a 0 xp 9 0 15 0 hln 100 REFDES=R7
a 0 s 0:13 0 0 0 hln 100 PKGTYPE=RC05
part 2572 DigStim 1190 320 h
a 0 x 13 13 4 19 hln 70 STIMULUS=QBus
a 0 a 0:13 0 0 0 hln 100 PKGREF=DSTM14
a 1 ap 9 0 13 -1 hcn 100 REFDES=DSTM14
part 307 74ALS257 1060 430 h
a 0 s 0:13 0 0 0 hln 100 GATE=
a 0 x 0:13 0 0 0 hln 100 PKGREF=U5
a 0 xp 9 0 11 -2 hln 100 REFDES=U5
a 0 x 0:13 0 0 0 hln 100 PKGTYPE=DIP16
a 0 sp 11 0 11 128 hln 100 PART=74ALS257
part 2574 DigStim 1270 320 h
a 0 a 0:13 0 0 0 hln 100 PKGREF=DSTM15
a 1 ap 9 0 13 -1 hcn 100 REFDES=DSTM15
a 0 x 13 13 4 19 hln 70 STIMULUS=Ctrl
part 1685 EDGE40M-B 1320 370 H
a 0 sp 11 0 -8 422 hln 100 PART=EDGE40M-B
a 0 s 0:13 0 0 0 hln 100 PKGTYPE=EDGE40
a 0 s 0:13 0 0 0 hln 100 GATE=
a 0 ap 0 0 0 10 hln 100 PKGREF=P4
a 1 ap 9 0 0 0 hln 100 REFDES=P4
part 996 TIP30 1060 660 U
a 0 s 0:13 0 0 0 hln 100 GATE=
a 0 sp 11 0 47 24 hln 100 PART=TIP30
a 0 ap 9 0 5 5 hln 100 REFDES=Q2
a 0 a 0:13 0 0 0 hln 100 PKGREF=Q4
a 0 s 0:13 0 0 0 hln 100 PKGTYPE=TO-220AB
part 2804 R 1050 620 h
a 0 s 0:13 0 0 0 hln 100 PKGTYPE=RC05
a 0 sp 0 0 0 10 hlb 100 PART=R
a 0 s 0:13 0 0 0 hln 100 GATE=
a 0 u 13 0 15 25 hln 100 VALUE=10k
a 0 x 0:13 0 0 0 hln 100 PKGREF=R10
a 0 xp 9 0 15 0 hln 100 REFDES=R10
part 306 74LS244 920 430 h
a 0 s 0:13 0 0 0 hln 100 GATE=
a 0 x 0:13 0 0 0 hln 100 PKGTYPE=DIP20
a 0 sp 11 0 13 130 hln 100 PART=74LS244
a 0 x 0:13 0 0 0 hln 100 PKGREF=U4
a 0 xp 9 0 6 -4 hln 100 REFDES=U4
part 3 74AS573 740 430 h
a 0 s 0:13 0 0 0 hln 100 GATE=
a 0 x 0:13 0 0 0 hln 100 PKGTYPE=DIP20
a 0 sp 11 0 10 120 hln 100 PART=74AS573
a 0 x 0:13 0 0 0 hln 100 PKGREF=U3
a 1 xp 9 0 11 -2 hln 100 REFDES=U3
part 1846 DigStim 320 400 h
a 0 x 13 13 4 19 hln 70 STIMULUS=DBus
a 0 a 0:13 0 0 0 hln 100 PKGREF=DSTM5
a 1 ap 9 0 13 -1 hcn 100 REFDES=DSTM5
part 1013 DB25M-B 370 440 h
a 0 sp 11 0 -46 259 hln 100 PART=DB25M-B
a 0 s 0:13 0 0 0 hln 100 GATE=
a 0 ap 9 0 0 0 hln 100 REFDES=P1
a 0 a 0:13 0 0 0 hln 100 PKGREF=P2
a 0 s 0:13 0 0 0 hln 100 PKGTYPE=DSHELL25-M
part 305 1N4148 770 860 h
a 0 sp 11 0 15 25 hln 100 PART=1N4148
a 0 s 0:13 0 0 0 hln 100 GATE=
a 0 ap 9 0 15 0 hln 100 REFDES=D1
a 0 a 0:13 0 0 0 hln 100 PKGREF=D2
a 0 s 0:13 0 0 0 hln 100 PKGTYPE=DO-35
part 303 TIP29 690 840 h
a 0 s 0:13 0 0 0 hln 100 GATE=
a 0 sp 11 0 -10 65 hln 100 PART=TIP29
a 0 ap 9 0 5 5 hln 100 REFDES=Q3
a 0 a 0:13 0 0 0 hln 100 PKGREF=Q1
a 0 s 0:13 0 0 0 hln 100 PKGTYPE=TO-220AB
part 1681 R 790 820 h
a 0 sp 0 0 0 10 hlb 100 PART=R
a 0 s 0:13 0 0 0 hln 100 GATE=
a 0 x 0:13 0 0 0 hln 100 PKGREF=R3
a 0 xp 9 0 15 0 hln 100 REFDES=R3
a 0 s 0:13 0 0 0 hln 100 PKGTYPE=RC05
part 1680 R 620 800 h
a 0 sp 0 0 0 10 hlb 100 PART=R
a 0 s 0:13 0 0 0 hln 100 GATE=
a 0 x 0:13 0 0 0 hln 100 PKGREF=R2
a 0 xp 9 0 15 0 hln 100 REFDES=R2
a 0 s 0:13 0 0 0 hln 100 PKGTYPE=RC05
part 2817 nodeMarker 790 720 h
a 0 s 0 0 0 0 hln 100 PROBEVAR=
a 0 s 0 0 0 0 hln 100 PROBEVAR=
a 0 a 0 0 4 22 hlb 100 LABEL=57
part 2819 nodeMarker 740 620 h
a 0 s 0 0 0 0 hln 100 PROBEVAR=
a 0 s 0 0 0 0 hln 100 PROBEVAR=
a 0 a 0 0 4 22 hlb 100 LABEL=58
part 2821 nodeMarker 590 590 h
a 0 s 0 0 0 0 hln 100 PROBEVAR=
a 0 s 0 0 0 0 hln 100 PROBEVAR=
a 0 a 0 0 4 22 hlb 100 LABEL=59
part 2823 nodeMarker 1140 560 h
a 0 s 0 0 0 0 hln 100 PROBEVAR=
a 0 s 0 0 0 0 hln 100 PROBEVAR=
a 0 a 0 0 4 22 hlb 100 LABEL=60
part 2825 nodeMarker 980 580 h
a 0 s 0 0 0 0 hln 100 PROBEVAR=
a 0 s 0 0 0 0 hln 100 PROBEVAR=
a 0 a 0 0 4 22 hlb 100 LABEL=61
part 2827 nodeMarker 910 380 h
a 0 s 0 0 0 0 hln 100 PROBEVAR=
a 0 s 0 0 0 0 hln 100 PROBEVAR=
a 0 a 0 0 4 22 hlb 100 LABEL=62
part 2829 nodeMarker 810 340 h
a 0 s 0 0 0 0 hln 100 PROBEVAR=
a 0 s 0 0 0 0 hln 100 PROBEVAR=
a 0 a 0 0 4 22 hlb 100 LABEL=63
part 2831 nodeMarker 830 350 h
a 0 s 0 0 0 0 hln 100 PROBEVAR=
a 0 s 0 0 0 0 hln 100 PROBEVAR=
a 0 a 0 0 4 22 hlb 100 LABEL=64
part 2833 nodeMarker 860 360 h
a 0 s 0 0 0 0 hln 100 PROBEVAR=
a 0 s 0 0 0 0 hln 100 PROBEVAR=
a 0 a 0 0 4 22 hlb 100 LABEL=65
part 2835 nodeMarker 880 370 h
a 0 s 0 0 0 0 hln 100 PROBEVAR=
a 0 s 0 0 0 0 hln 100 PROBEVAR=
a 0 a 0 0 4 22 hlb 100 LABEL=66
part 2837 nodeMarker 370 400 h
a 0 s 0 0 0 0 hln 100 PROBEVAR=
a 0 s 0 0 0 0 hln 100 PROBEVAR=
a 0 a 0 0 4 22 hlb 100 LABEL=67
part 2839 nodeMarker 420 440 h
a 0 s 0 0 0 0 hln 100 PROBEVAR=
a 0 s 0 0 0 0 hln 100 PROBEVAR=P1:1
a 0 a 0 0 4 22 hlb 100 LABEL=68
part 2840 nodeMarker 430 670 h
a 0 s 0 0 0 0 hln 100 PROBEVAR=
a 0 s 0 0 0 0 hln 100 PROBEVAR=P1:17
a 0 a 0 0 4 22 hlb 100 LABEL=69
part 2841 nodeMarker 440 640 h
a 0 s 0 0 0 0 hln 100 PROBEVAR=
a 0 s 0 0 0 0 hln 100 PROBEVAR=INIT
a 0 a 0 0 4 22 hlb 100 LABEL=70
part 2842 nodeMarker 450 610 h
a 0 s 0 0 0 0 hln 100 PROBEVAR=
a 0 s 0 0 0 0 hln 100 PROBEVAR=AUTO_FD
a 0 a 0 0 4 22 hlb 100 LABEL=71
@conn
w 427
a 0 sr 0 0 0 0 hln 100 LABEL=D0
a 0 up 0:33 0 0 0 hln 100 LVL=
s 550 450 490 450 1121
a 0 sr 3 0 520 450 hcn 100 LABEL=D0
a 0 up 33 0 520 451 hct 100 LVL=
w 430
a 0 sr 0 0 0 0 hln 100 LABEL=D1
a 0 up 0:33 0 0 0 hln 100 LVL=
s 550 460 490 460 429
a 0 sr 3 0 520 460 hcn 100 LABEL=D1
a 0 up 33 0 520 461 hct 100 LVL=
w 433
a 0 sr 0 0 0 0 hln 100 LABEL=D2
a 0 up 0:33 0 0 0 hln 100 LVL=
s 550 470 490 470 432
a 0 sr 3 0 520 470 hcn 100 LABEL=D2
a 0 up 33 0 520 471 hct 100 LVL=
w 436
a 0 sr 0 0 0 0 hln 100 LABEL=D3
a 0 up 0:33 0 0 0 hln 100 LVL=
s 550 480 490 480 435
a 0 sr 3 0 520 480 hcn 100 LABEL=D3
a 0 up 33 0 520 481 hct 100 LVL=
w 439
a 0 sr 0 0 0 0 hln 100 LABEL=D4
a 0 up 0:33 0 0 0 hln 100 LVL=
s 550 490 490 490 438
a 0 sr 3 0 520 490 hcn 100 LABEL=D4
a 0 up 33 0 520 491 hct 100 LVL=
w 442
a 0 sr 0 0 0 0 hln 100 LABEL=D5
a 0 up 0:33 0 0 0 hln 100 LVL=
s 550 500 490 500 441
a 0 sr 3 0 520 500 hcn 100 LABEL=D5
a 0 up 33 0 520 501 hct 100 LVL=
w 445
a 0 sr 0 0 0 0 hln 100 LABEL=D6
a 0 up 0:33 0 0 0 hln 100 LVL=
s 550 510 490 510 444
a 0 sr 3 0 520 510 hcn 100 LABEL=D6
a 0 up 33 0 520 511 hct 100 LVL=
w 448
a 0 sr 0 0 0 0 hln 100 LABEL=D7
a 0 up 0:33 0 0 0 hln 100 LVL=
s 550 520 490 520 447
a 0 sr 3 0 520 520 hcn 100 LABEL=D7
a 0 up 33 0 520 521 hct 100 LVL=
w 1895
a 0 up 0:33 0 0 0 hln 100 V=
s 480 740 480 700 2039
s 480 740 320 740 2083
a 0 up 33 0 400 739 hct 100 V=
s 480 700 510 700 1898
s 490 740 480 740 2077
w 1034
a 0 up 0:33 0 0 0 hln 100 V=
s 370 610 390 610 1713
s 370 620 390 620 1712
s 390 620 390 610 1791
s 370 630 390 630 1711
s 390 630 390 620 1789
s 370 640 390 640 1710
s 390 640 390 630 1787
s 370 650 390 650 1709
s 390 650 390 640 1785
s 370 660 390 660 1708
s 390 660 390 650 1783
s 370 670 390 670 1707
s 390 670 390 660 1781
s 370 680 390 680 1706
s 390 680 390 670 1045
a 0 up 33 0 392 615 hlt 100 V=
w 999
a 0 up 0:33 0 0 0 hln 100 V=
s 980 700 1130 700 998
a 0 up 33 0 1055 699 hct 100 V=
w 1622
a 0 up 0:33 0 0 0 hln 100 V=
s 1080 680 1080 730 1000
a 0 up 33 0 1082 705 hlt 100 V=
w 1001
a 0 up 0:33 0 0 0 hln 100 V=
s 1150 730 1150 720 1004
a 0 up 33 0 1152 725 hlt 100 V=
w 1624
a 0 up 0:33 0 0 0 hln 100 V=
s 1210 640 1210 570 2309
s 1210 730 1210 640 2498
s 1080 640 1210 640 2595
a 0 up 33 0 1145 639 hct 100 V=
s 1210 570 1320 570 1655
w 2521
a 0 up 0:33 0 0 0 hln 100 V=
s 1180 680 1180 530 2305
s 1150 680 1180 680 1009
s 1180 730 1180 680 2501
a 0 up 33 0 1182 555 hlt 100 V=
s 1180 530 1320 530 1660
w 976
a 0 up 0:33 0 0 0 hln 100 V=
s 820 660 820 620 2628
a 0 up 33 0 822 640 hlt 100 V=
w 979
a 0 sr 0 0 0 0 hln 100 LABEL=CS
a 0 up 0:33 0 0 0 hln 100 V=
s 570 660 650 660 978
a 0 sr 3 0 610 658 hcn 100 LABEL=CS
s 650 660 650 700 980
s 650 700 940 700 2782
a 0 up 33 0 795 699 hct 100 V=
w 971
a 0 up 0:33 0 0 0 hln 100 V=
a 0 sr 0 0 0 0 hln 100 LABEL=WR
a 0 up 0:33 0 0 0 hln 100 LVL=
s 890 660 1020 660 2814
a 0 sr 3 0 950 658 hcn 100 LABEL=WR
s 860 660 890 660 970
a 0 up 33 0 950 659 hct 100 V=
s 860 430 860 490 2665
s 800 500 860 500 2650
s 920 430 860 430 2663
s 860 490 860 500 2796
s 920 490 860 490 2794
a 0 up 33 0 890 489 hct 100 LVL=
s 860 500 860 560 2808
s 860 560 890 560 2810
s 890 560 890 660 2812
w 2642
a 0 up 0:33 0 0 0 hln 100 V=
a 0 sr 0 0 0 0 hln 100 LABEL=L/H
a 0 up 0:33 0 0 0 hln 100 LVL=
s 1050 620 860 620 2661
a 0 up 33 0 955 619 hct 100 V=
a 0 up 33 0 955 619 hct 100 LVL=
a 0 sr 3 0 955 618 hcn 100 LABEL=L/H
s 860 620 860 570 2641
s 860 570 820 570 2643
s 820 570 820 510 2645
s 820 510 800 510 2647
s 1060 440 1050 440 843
s 1050 440 1050 620 2659
w 871
a 0 sr 0 0 0 0 hln 100 LABEL=Z
a 0 up 0:33 0 0 0 hln 100 LVL=
s 620 670 570 670 870
a 0 sr 3 0 595 668 hcn 100 LABEL=Z
s 620 730 620 670 872
s 720 730 620 730 2784
a 0 up 33 0 670 729 hct 100 LVL=
w 541
a 0 up 0:33 0 0 0 hln 100 LVL=
a 0 sr 0 0 0 0 hln 100 LABEL=RG
s 680 560 790 560 2816
a 0 sr 3 0 703 558 hcn 100 LABEL=RG
s 740 430 730 430 540
s 730 430 730 410 542
s 540 410 540 430 546
s 730 410 680 410 924
s 680 410 540 410 2386
s 680 410 680 560 922
s 790 560 790 720 927
a 0 up 33 0 792 650 hlt 100 LVL=
s 540 430 550 430 2569
s 790 720 790 740 2818
w 1534
a 0 sr 0 0 0 0 hln 100 LABEL=Q7
a 0 up 0:33 0 0 0 hln 100 LVL=
s 1320 510 1190 510 1533
a 0 sr 3 0 1255 508 hcn 100 LABEL=Q7
a 0 up 33 0 1255 509 hct 100 LVL=
w 1531
a 0 sr 0 0 0 0 hln 100 LABEL=Q6
a 0 up 0:33 0 0 0 hln 100 LVL=
s 1320 490 1190 490 1530
a 0 sr 3 0 1255 488 hcn 100 LABEL=Q6
a 0 up 33 0 1255 489 hct 100 LVL=
w 1528
a 0 sr 0 0 0 0 hln 100 LABEL=Q0
a 0 up 0:33 0 0 0 hln 100 LVL=
s 1320 480 1190 480 1527
a 0 sr 3 0 1255 478 hcn 100 LABEL=Q0
a 0 up 33 0 1255 479 hct 100 LVL=
w 1525
a 0 sr 0 0 0 0 hln 100 LABEL=Q5
a 0 up 0:33 0 0 0 hln 100 LVL=
s 1320 470 1190 470 1524
a 0 sr 3 0 1255 468 hcn 100 LABEL=Q5
a 0 up 33 0 1255 469 hct 100 LVL=
w 1522
a 0 sr 0 0 0 0 hln 100 LABEL=Q1
a 0 up 0:33 0 0 0 hln 100 LVL=
s 1320 460 1190 460 1521
a 0 sr 3 0 1255 458 hcn 100 LABEL=Q1
a 0 up 33 0 1255 459 hct 100 LVL=
w 1519
a 0 sr 0 0 0 0 hln 100 LABEL=Q4
a 0 up 0:33 0 0 0 hln 100 LVL=
s 1320 450 1190 450 1518
a 0 sr 3 0 1255 448 hcn 100 LABEL=Q4
a 0 up 33 0 1255 449 hct 100 LVL=
w 1516
a 0 sr 0 0 0 0 hln 100 LABEL=Q2
a 0 up 0:33 0 0 0 hln 100 LVL=
s 1320 440 1190 440 1515
a 0 sr 3 0 1255 438 hcn 100 LABEL=Q2
a 0 up 33 0 1255 439 hct 100 LVL=
w 1513
a 0 sr 0 0 0 0 hln 100 LABEL=Q3
a 0 up 0:33 0 0 0 hln 100 LVL=
s 1320 430 1190 430 1512
a 0 sr 3 0 1255 428 hcn 100 LABEL=Q3
a 0 up 33 0 1255 429 hct 100 LVL=
w 1593
a 0 sr 0:3 0 820 238 hcn 100 LABEL=Q1
a 0 up 0:33 0 0 0 hln 100 LVL=
s 1030 470 1030 450 1607
a 0 sr 3 0 1032 460 hln 100 LABEL=Q1
s 1030 450 1020 450 1609
s 1060 470 1030 470 1605
s 980 450 1020 450 471
a 0 sr 3 0 1000 448 hcn 100 LABEL=Q1
a 0 up 33 0 1000 449 hct 100 LVL=
w 469
a 0 sr 0 0 0 0 hln 100 LABEL=Q0
a 0 up 0:33 0 0 0 hln 100 LVL=
s 1040 440 1020 440 1603
a 0 sr 3 0 1030 438 hcn 100 LABEL=Q0
s 1040 460 1040 440 1601
s 1060 460 1040 460 1599
s 980 440 1020 440 468
a 0 sr 3 0 1000 438 hcn 100 LABEL=Q0
a 0 up 33 0 1000 439 hct 100 LVL=
w 475
a 0 sr 0 0 0 0 hln 100 LABEL=Q2
a 0 up 0:33 0 0 0 hln 100 LVL=
s 980 460 1020 460 474
a 0 sr 3 0 1000 458 hcn 100 LABEL=Q2
a 0 up 33 0 1000 459 hct 100 LVL=
w 478
a 0 sr 0 0 0 0 hln 100 LABEL=Q3
a 0 up 0:33 0 0 0 hln 100 LVL=
s 980 470 1020 470 477
a 0 sr 3 0 1000 468 hcn 100 LABEL=Q3
a 0 up 33 0 1000 469 hct 100 LVL=
w 497
a 0 sr 0 0 0 0 hln 100 LABEL=Q2
a 0 up 0:33 0 0 0 hln 100 LVL=
s 1060 480 1020 480 496
a 0 sr 3 0 1040 478 hcn 100 LABEL=Q2
a 0 up 33 0 1040 479 hct 100 LVL=
w 500
a 0 sr 0 0 0 0 hln 100 LABEL=Q3
a 0 up 0:33 0 0 0 hln 100 LVL=
s 1060 490 1020 490 499
a 0 sr 3 0 1040 488 hcn 100 LABEL=Q3
a 0 up 33 0 1040 489 hct 100 LVL=
w 490
a 0 sr 0 0 0 0 hln 100 LABEL=Q7
a 0 up 0:33 0 0 0 hln 100 LVL=
s 980 530 1020 530 489
a 0 sr 3 0 1000 528 hcn 100 LABEL=Q7
s 1060 530 1020 530 508
a 0 sr 3 0 1040 528 hcn 100 LABEL=Q7
a 0 up 33 0 1040 529 hct 100 LVL=
w 487
a 0 sr 0 0 0 0 hln 100 LABEL=Q6
a 0 up 0:33 0 0 0 hln 100 LVL=
s 980 520 1020 520 486
a 0 sr 3 0 1000 518 hcn 100 LABEL=Q6
s 1060 520 1020 520 506
a 0 sr 3 0 1040 518 hcn 100 LABEL=Q6
a 0 up 33 0 1040 519 hct 100 LVL=
w 484
a 0 sr 0 0 0 0 hln 100 LABEL=Q5
a 0 up 0:33 0 0 0 hln 100 LVL=
s 980 510 1020 510 483
a 0 sr 3 0 1000 508 hcn 100 LABEL=Q5
s 1060 510 1020 510 504
a 0 sr 3 0 1040 508 hcn 100 LABEL=Q5
a 0 up 33 0 1040 509 hct 100 LVL=
w 481
a 0 sr 0 0 0 0 hln 100 LABEL=Q4
a 0 up 0:33 0 0 0 hln 100 LVL=
s 980 500 1020 500 480
a 0 sr 3 0 1000 498 hcn 100 LABEL=Q4
s 1060 500 1020 500 502
a 0 sr 3 0 1040 498 hcn 100 LABEL=Q4
a 0 up 33 0 1040 499 hct 100 LVL=
w 1537
a 0 sr 0 0 0 0 hln 100 LABEL=A0
a 0 up 0:33 0 0 0 hln 100 LVL=
s 1320 500 1220 500 1536
a 0 sr 3 0 1270 498 hcn 100 LABEL=A0
a 0 up 33 0 1270 499 hct 100 LVL=
w 1540
a 0 sr 0 0 0 0 hln 100 LABEL=A1
a 0 up 0:33 0 0 0 hln 100 LVL=
s 1320 520 1220 520 1539
a 0 sr 3 0 1270 518 hcn 100 LABEL=A1
a 0 up 33 0 1270 519 hct 100 LVL=
w 1546
a 0 sr 0 0 0 0 hln 100 LABEL=A2
a 0 up 0:33 0 0 0 hln 100 LVL=
s 1320 540 1220 540 1545
a 0 sr 3 0 1270 538 hcn 100 LABEL=A2
a 0 up 33 0 1270 539 hct 100 LVL=
w 1549
a 0 up 0:33 0 0 0 hln 100 LVL=
a 0 sr 0 0 0 0 hln 100 LABEL=A10
s 1320 550 1220 550 1548
a 0 sr 3 0 1270 548 hcn 100 LABEL=A10
a 0 up 33 0 1270 549 hct 100 LVL=
w 1552
a 0 sr 0 0 0 0 hln 100 LABEL=A3
a 0 up 0:33 0 0 0 hln 100 LVL=
s 1320 560 1220 560 1551
a 0 sr 3 0 1270 558 hcn 100 LABEL=A3
a 0 up 33 0 1270 559 hct 100 LVL=
w 1560
a 0 sr 0 0 0 0 hln 100 LABEL=A4
a 0 up 0:33 0 0 0 hln 100 LVL=
s 1320 580 1220 580 1559
a 0 sr 3 0 1270 578 hcn 100 LABEL=A4
a 0 up 33 0 1270 579 hct 100 LVL=
w 1562
a 0 up 0:33 0 0 0 hln 100 LVL=
a 0 sr 0 0 0 0 hln 100 LABEL=A11
s 1320 590 1220 590 1561
a 0 sr 3 0 1270 588 hcn 100 LABEL=A11
a 0 up 33 0 1270 589 hct 100 LVL=
w 1565
a 0 sr 0 0 0 0 hln 100 LABEL=A5
a 0 up 0:33 0 0 0 hln 100 LVL=
s 1320 600 1220 600 1564
a 0 sr 3 0 1270 598 hcn 100 LABEL=A5
a 0 up 33 0 1270 599 hct 100 LVL=
w 1568
a 0 up 0:33 0 0 0 hln 100 LVL=
a 0 sr 0 0 0 0 hln 100 LABEL=A9
s 1320 610 1220 610 1567
a 0 sr 3 0 1270 608 hcn 100 LABEL=A9
a 0 up 33 0 1270 609 hct 100 LVL=
w 1571
a 0 sr 0 0 0 0 hln 100 LABEL=A6
a 0 up 0:33 0 0 0 hln 100 LVL=
s 1320 620 1220 620 1570
a 0 sr 3 0 1270 618 hcn 100 LABEL=A6
a 0 up 33 0 1270 619 hct 100 LVL=
w 1574
a 0 sr 0 0 0 0 hln 100 LABEL=A8
a 0 up 0:33 0 0 0 hln 100 LVL=
s 1320 630 1220 630 1573
a 0 sr 3 0 1270 628 hcn 100 LABEL=A8
a 0 up 33 0 1270 629 hct 100 LVL=
w 1577
a 0 sr 0 0 0 0 hln 100 LABEL=A7
a 0 up 0:33 0 0 0 hln 100 LVL=
s 1320 640 1220 640 1576
a 0 sr 3 0 1270 638 hcn 100 LABEL=A7
a 0 up 33 0 1270 639 hct 100 LVL=
w 2624
a 0 sr 0 0 0 0 hln 100 LABEL=A12
a 0 up 0:33 0 0 0 hln 100 LVL=
s 1220 650 1320 650 2623
a 0 sr 3 0 1270 648 hcn 100 LABEL=A12
a 0 up 33 0 1270 649 hct 100 LVL=
w 401
a 0 sr 0 0 0 0 hln 100 LABEL=A0
a 0 up 0:33 0 0 0 hln 100 LVL=
s 800 450 850 450 400
a 0 sr 3 0 825 450 hcn 100 LABEL=A0
a 0 up 33 0 825 449 hct 100 LVL=
w 404
a 0 sr 0 0 0 0 hln 100 LABEL=A1
a 0 up 0:33 0 0 0 hln 100 LVL=
s 800 460 850 460 403
a 0 sr 3 0 825 460 hcn 100 LABEL=A1
a 0 up 33 0 825 459 hct 100 LVL=
w 407
a 0 sr 0 0 0 0 hln 100 LABEL=A2
a 0 up 0:33 0 0 0 hln 100 LVL=
s 800 470 850 470 406
a 0 sr 3 0 825 470 hcn 100 LABEL=A2
a 0 up 33 0 825 469 hct 100 LVL=
w 410
a 0 sr 0 0 0 0 hln 100 LABEL=A3
a 0 up 0:33 0 0 0 hln 100 LVL=
s 800 480 850 480 409
a 0 sr 3 0 825 480 hcn 100 LABEL=A3
a 0 up 33 0 825 479 hct 100 LVL=
w 413
a 0 sr 0 0 0 0 hln 100 LABEL=A4
a 0 up 0:33 0 0 0 hln 100 LVL=
s 800 490 850 490 412
a 0 sr 3 0 825 490 hcn 100 LABEL=A4
a 0 up 33 0 825 491 hct 100 LVL=
w 377
a 0 sr 0 0 0 0 hln 100 LABEL=A5
a 0 up 0:33 0 0 0 hln 100 LVL=
s 610 450 660 450 376
a 0 sr 3 0 635 450 hcn 100 LABEL=A5
a 0 up 33 0 635 449 hct 100 LVL=
w 380
a 0 sr 0 0 0 0 hln 100 LABEL=A6
a 0 up 0:33 0 0 0 hln 100 LVL=
s 610 460 660 460 379
a 0 sr 3 0 635 460 hcn 100 LABEL=A6
a 0 up 33 0 635 459 hct 100 LVL=
w 383
a 0 sr 0 0 0 0 hln 100 LABEL=A7
a 0 up 0:33 0 0 0 hln 100 LVL=
s 610 470 660 470 382
a 0 sr 3 0 635 470 hcn 100 LABEL=A7
a 0 up 33 0 635 469 hct 100 LVL=
w 386
a 0 sr 0 0 0 0 hln 100 LABEL=A8
a 0 up 0:33 0 0 0 hln 100 LVL=
s 610 480 660 480 385
a 0 sr 3 0 635 480 hcn 100 LABEL=A8
a 0 up 33 0 635 479 hct 100 LVL=
w 389
a 0 sr 0 0 0 0 hln 100 LABEL=A9
a 0 up 0:33 0 0 0 hln 100 LVL=
s 610 490 660 490 388
a 0 sr 3 0 635 490 hcn 100 LABEL=A9
a 0 up 33 0 635 489 hct 100 LVL=
w 392
a 0 sr 0 0 0 0 hln 100 LABEL=A10
a 0 up 0:33 0 0 0 hln 100 LVL=
s 610 500 660 500 391
a 0 sr 3 0 635 500 hcn 100 LABEL=A10
a 0 up 33 0 635 499 hct 100 LVL=
w 395
a 0 sr 0 0 0 0 hln 100 LABEL=A11
a 0 up 0:33 0 0 0 hln 100 LVL=
s 610 510 660 510 394
a 0 sr 3 0 635 510 hcn 100 LABEL=A11
a 0 up 33 0 635 509 hct 100 LVL=
w 398
a 0 sr 0 0 0 0 hln 100 LABEL=A12
a 0 up 0:33 0 0 0 hln 100 LVL=
s 610 520 660 520 397
a 0 sr 3 0 635 520 hcn 100 LABEL=A12
a 0 up 33 0 635 519 hct 100 LVL=
w 2761
a 0 sr 0 0 0 0 hln 100 LABEL=BUSY
a 0 up 0:33 0 0 0 hln 100 LVL=
s 410 380 910 380 2764
a 0 up 33 0 840 379 hct 100 LVL=
a 0 sr 3 0 840 378 hcn 100 LABEL=BUSY
s 410 540 410 380 2687
s 370 540 410 540 2685
s 1270 380 1320 380 2762
s 1270 320 1270 380 2702
s 910 380 1270 380 2828
w 2723
a 0 sr 0:3 0 795 338 hcn 100 LABEL=ASK
a 0 up 0:33 0 0 0 hln 100 LVL=
s 810 340 440 340 2830
a 0 sr 3 0 683 338 hcn 100 LABEL=ASK
s 1150 340 810 340 2732
a 0 up 33 0 683 339 hct 100 LVL=
s 1120 520 1150 520 2722
s 1150 520 1150 340 2724
s 370 530 440 530 2756
s 440 530 440 340 2758
w 2719
a 0 sr 0:3 0 795 348 hcn 100 LABEL=PE
a 0 up 0:33 0 0 0 hln 100 LVL=
s 830 350 450 350 2832
a 0 sr 3 0 723 348 hcn 100 LABEL=PE
s 1140 350 830 350 2730
a 0 up 33 0 723 349 hct 100 LVL=
s 1120 500 1140 500 2718
s 1140 500 1140 350 2720
s 370 550 450 550 2751
s 450 550 450 350 2753
w 2715
a 0 sr 0:3 0 800 358 hcn 100 LABEL=SLCT
a 0 up 0:33 0 0 0 hln 100 LVL=
s 860 360 470 360 2834
a 0 sr 3 0 760 358 hcn 100 LABEL=SLCT
s 1130 360 860 360 2728
a 0 up 33 0 760 359 hct 100 LVL=
s 1120 480 1130 480 2714
s 1130 480 1130 360 2716
s 370 560 470 560 2746
s 470 560 470 360 2748
w 2697
a 0 sr 0:3 0 800 368 hcn 100 LABEL=ERROR
a 0 up 0:33 0 0 0 hln 100 LVL=
s 880 370 480 370 2836
a 0 sr 3 0 800 368 hcn 100 LABEL=ERROR
s 1120 370 880 370 2726
a 0 up 33 0 800 369 hct 100 LVL=
s 1120 460 1120 370 2696
s 370 580 480 580 2741
s 480 580 480 370 2743
w 333
a 0 sr 0 0 0 0 hln 100 LABEL=D0
a 0 up 0:33 0 0 0 hln 100 LVL=
s 740 450 690 450 332
a 0 sr 3 0 715 450 hcn 100 LABEL=D0
a 0 up 33 0 715 449 hct 100 LVL=
w 336
a 0 sr 0 0 0 0 hln 100 LABEL=D1
a 0 up 0:33 0 0 0 hln 100 LVL=
s 740 460 690 460 335
a 0 sr 3 0 715 460 hcn 100 LABEL=D1
a 0 up 33 0 715 459 hct 100 LVL=
w 339
a 0 sr 0 0 0 0 hln 100 LABEL=D2
a 0 up 0:33 0 0 0 hln 100 LVL=
s 740 470 690 470 338
a 0 sr 3 0 715 470 hcn 100 LABEL=D2
a 0 up 33 0 715 469 hct 100 LVL=
w 342
a 0 sr 0 0 0 0 hln 100 LABEL=D3
a 0 up 0:33 0 0 0 hln 100 LVL=
s 740 480 690 480 341
a 0 sr 3 0 715 480 hcn 100 LABEL=D3
a 0 up 33 0 715 479 hct 100 LVL=
w 345
a 0 sr 0 0 0 0 hln 100 LABEL=D4
a 0 up 0:33 0 0 0 hln 100 LVL=
s 740 490 690 490 344
a 0 sr 3 0 715 490 hcn 100 LABEL=D4
a 0 up 33 0 715 489 hct 100 LVL=
w 348
a 0 sr 0 0 0 0 hln 100 LABEL=D5
a 0 up 0:33 0 0 0 hln 100 LVL=
s 740 500 690 500 347
a 0 sr 3 0 715 500 hcn 100 LABEL=D5
a 0 up 33 0 715 499 hct 100 LVL=
w 351
a 0 sr 0 0 0 0 hln 100 LABEL=D6
a 0 up 0:33 0 0 0 hln 100 LVL=
s 740 510 690 510 350
a 0 sr 3 0 715 510 hcn 100 LABEL=D6
a 0 up 33 0 715 509 hct 100 LVL=
w 363
a 0 sr 0 0 0 0 hln 100 LABEL=D7
a 0 up 0:33 0 0 0 hln 100 LVL=
s 740 520 690 520 362
a 0 sr 3 0 715 520 hcn 100 LABEL=D7
a 0 up 33 0 715 519 hct 100 LVL=
w 1950
a 0 sr 0 0 0 0 hln 100 LABEL=D7
a 0 up 0:33 0 0 0 hln 100 LVL=
s 370 520 400 520 1949
a 0 sr 3 0 385 520 hcn 100 LABEL=D7
a 0 up 33 0 385 521 hct 100 LVL=
w 1947
a 0 sr 0 0 0 0 hln 100 LABEL=D6
a 0 up 0:33 0 0 0 hln 100 LVL=
s 370 510 400 510 1946
a 0 sr 3 0 385 510 hcn 100 LABEL=D6
a 0 up 33 0 385 511 hct 100 LVL=
w 1944
a 0 sr 0 0 0 0 hln 100 LABEL=D5
a 0 up 0:33 0 0 0 hln 100 LVL=
s 370 500 400 500 1943
a 0 sr 3 0 385 500 hcn 100 LABEL=D5
a 0 up 33 0 385 501 hct 100 LVL=
w 1941
a 0 sr 0 0 0 0 hln 100 LABEL=D4
a 0 up 0:33 0 0 0 hln 100 LVL=
s 370 490 400 490 1940
a 0 sr 3 0 385 490 hcn 100 LABEL=D4
a 0 up 33 0 385 491 hct 100 LVL=
w 1938
a 0 sr 0 0 0 0 hln 100 LABEL=D3
a 0 up 0:33 0 0 0 hln 100 LVL=
s 370 480 400 480 1937
a 0 sr 3 0 385 480 hcn 100 LABEL=D3
a 0 up 33 0 385 481 hct 100 LVL=
w 1935
a 0 sr 0 0 0 0 hln 100 LABEL=D2
a 0 up 0:33 0 0 0 hln 100 LVL=
s 370 470 400 470 1934
a 0 sr 3 0 385 470 hcn 100 LABEL=D2
a 0 up 33 0 385 471 hct 100 LVL=
w 1932
a 0 sr 0 0 0 0 hln 100 LABEL=D1
a 0 up 0:33 0 0 0 hln 100 LVL=
s 370 460 400 460 1931
a 0 sr 3 0 385 460 hcn 100 LABEL=D1
a 0 up 33 0 385 461 hct 100 LVL=
w 1929
a 0 sr 0 0 0 0 hln 100 LABEL=D0
a 0 up 0:33 0 0 0 hln 100 LVL=
s 370 450 400 450 1928
a 0 sr 3 0 385 450 hcn 100 LABEL=D0
a 0 up 33 0 385 451 hct 100 LVL=
w 81
a 0 sr 0 0 0 0 hln 100 LABEL=D1
a 0 up 0:33 0 0 0 hln 100 LVL=
s 920 450 880 450 80
a 0 sr 3 0 900 448 hcn 100 LABEL=D1
a 0 up 33 0 900 449 hct 100 LVL=
w 84
a 0 sr 0 0 0 0 hln 100 LABEL=D2
a 0 up 0:33 0 0 0 hln 100 LVL=
s 920 460 880 460 83
a 0 sr 3 0 900 458 hcn 100 LABEL=D2
a 0 up 33 0 900 459 hct 100 LVL=
w 87
a 0 sr 0 0 0 0 hln 100 LABEL=D3
a 0 up 0:33 0 0 0 hln 100 LVL=
s 920 470 880 470 86
a 0 sr 3 0 900 468 hcn 100 LABEL=D3
a 0 up 33 0 900 469 hct 100 LVL=
w 90
a 0 sr 0 0 0 0 hln 100 LABEL=D4
a 0 up 0:33 0 0 0 hln 100 LVL=
s 920 500 880 500 89
a 0 sr 3 0 900 498 hcn 100 LABEL=D4
a 0 up 33 0 900 499 hct 100 LVL=
w 93
a 0 sr 0 0 0 0 hln 100 LABEL=D5
a 0 up 0:33 0 0 0 hln 100 LVL=
s 920 510 880 510 92
a 0 sr 3 0 900 508 hcn 100 LABEL=D5
a 0 up 33 0 900 509 hct 100 LVL=
w 96
a 0 sr 0 0 0 0 hln 100 LABEL=D6
a 0 up 0:33 0 0 0 hln 100 LVL=
s 920 520 880 520 95
a 0 sr 3 0 900 518 hcn 100 LABEL=D6
a 0 up 33 0 900 519 hct 100 LVL=
w 367
a 0 sr 0 0 0 0 hln 100 LABEL=D7
a 0 up 0:33 0 0 0 hln 100 LVL=
s 920 530 880 530 366
a 0 sr 3 0 900 528 hcn 100 LABEL=D7
a 0 up 33 0 900 529 hct 100 LVL=
w 78
a 0 sr 0 0 0 0 hln 100 LABEL=D0
a 0 up 0:33 0 0 0 hln 100 LVL=
s 920 440 880 440 77
a 0 sr 3 0 900 438 hcn 100 LABEL=D0
a 0 up 33 0 900 439 hct 100 LVL=
w 2004
a 0 sr 0 0 0 0 hln 100 LABEL=STROBE
a 0 up 0:33 0 0 0 hln 100 LVL=
s 420 440 460 440 2843
a 0 sr 3 0 433 440 hcn 100 LABEL=STROBE
s 370 440 420 440 1994
a 0 up 33 0 433 441 hct 100 LVL=
s 320 440 370 440 2055
s 460 440 460 790 1996
s 520 790 460 790 2002
s 520 790 520 810 945
w 2020
a 0 sr 0 0 0 0 hln 100 LABEL=SLCT_IN
a 0 up 0:33 0 0 0 hln 100 LVL=
s 370 600 430 600 2019
a 0 sr 3 0 424 600 hcn 100 LABEL=SLCT_IN
a 0 up 33 0 424 601 hct 100 LVL=
s 320 600 370 600 2065
s 320 620 320 600 2063
s 430 680 510 680 2023
s 430 600 430 670 2021
s 430 670 430 680 2846
w 2014
a 0 sr 0 0 0 0 hln 100 LABEL=INIT
a 0 up 0:33 0 0 0 hln 100 LVL=
s 370 590 440 590 2845
a 0 up 33 0 419 591 hct 100 LVL=
a 0 sr 3 0 419 590 hcn 100 LABEL=INIT
s 320 590 370 590 2061
s 440 670 510 670 2017
s 440 590 440 640 2015
s 440 640 440 670 2847
w 2008
a 0 sr 0 0 0 0 hln 100 LABEL=AUTO_FD
a 0 up 0:33 0 0 0 hln 100 LVL=
s 370 570 450 570 2844
a 0 up 33 0 428 571 hct 100 LVL=
a 0 sr 3 0 428 570 hcn 100 LABEL=AUTO_FD
s 320 570 370 570 2059
s 320 560 320 570 2057
s 450 660 510 660 2011
s 450 570 450 610 2009
s 450 610 450 660 2848
w 888
a 0 up 0:33 0 0 0 hln 100 LVL=
s 570 640 610 640 853
a 0 up 33 0 590 639 hct 100 LVL=
s 610 610 610 630 887
s 610 640 610 630 889
w 907
a 0 up 0:33 0 0 0 hln 100 LVL=
a 0 up 0:33 0 0 0 hln 100 V=
a 0 sr 0 0 0 0 hln 100 LABEL=AH
s 540 590 590 590 910
a 0 up 33 0 610 589 hct 100 V=
a 0 sr 3 0 565 588 hcn 100 LABEL=AH
s 540 440 540 590 908
a 0 up 33 0 542 515 hlt 100 LVL=
s 680 590 680 620 912
s 540 440 550 440 2567
s 590 590 680 590 2822
w 860
a 0 up 0:33 0 0 0 hln 100 LVL=
s 570 650 680 650 2780
a 0 up 33 0 625 649 hct 100 LVL=
s 680 650 680 660 902
s 680 660 680 680 904
w 915
a 0 up 0:33 0 0 0 hln 100 LVL=
a 0 sr 0 0 0 0 hln 100 LABEL=AL
s 750 620 750 670 920
a 0 sr 3 0 752 645 hln 100 LABEL=AL
s 740 440 730 440 914
s 730 440 730 620 916
a 0 up 33 0 732 530 hlt 100 LVL=
s 730 620 740 620 918
s 740 620 750 620 2820
w 2852
s 690 840 670 840 2849
s 670 840 670 800 2850